IEEE_14_bus_test_system_Abur.m
%        IEEE 14-BUS TEST SYSTEM (Ali Abur)
%        Bus Bus   Voltage  Angle    ---Load----    -------Generator---------   Static Mvar
%        No  code  Mag.      rad       MW    Mvar     MW    Mvar    Qmin   Qmax   +Qc/-Ql  Area 
%        1   2      3         4        5     6        7       8      9      10       11     12
busdata=[1   1    1.0600       0.0   0.00   0.00   232.28  -16.89   0.00    0.00      0      1
         2   2    1.0450   -0.0869  21.70  12.70    40.00   42.39 -40.00   50.00      0      1
         3   0    1.0100   -0.2220  94.20  19.00     0.00   23.39   0.00   40.00      0      1
         4   0    1.0186   -0.1801  47.80  -3.90     0.00    0.00   0.00    0.00      0      1
         5   2    1.0203   -0.1532   7.60   1.60     0.00    0.00   0.00    0.00      0      1   
         6   0    1.0700   -0.2482  11.20   7.50     0.00   12.22  -6.00   24.00      0      1
         7   0    1.0620   -0.2333   0.00   0.00     0.00    0.00   0.00    0.00      0      2
         8   2    1.0900   -0.2333   0.00   0.00     0.00   17.36  -6.00   24.00      0      2   
         9   0    1.0563   -0.2609  29.50  16.60     0.00    0.00   0.00    0.00   0.19      2
        10   0    1.0513   -0.2635   9.00   5.80     0.00    0.00   0.00    0.00      0      2
        11   2    1.0571   -0.2581   3.50   1.80     0.00    0.00   0.00    0.00      0      2   
        12   0    1.0552   -0.2632   6.10   1.60     0.00    0.00   0.00    0.00      0      2
        13   2    1.0505   -0.2646  13.50   5.80     0.00    0.00   0.00    0.00      0      2   
        14   0    1.0358   -0.2799  14.90   5.00     0.00    0.00   0.00    0.00      0      2];

%                            Line code
%          Bus  bus   R         X         1/2 B   = 1 for lines
%          nl   nr    p.u.      p.u.      p.u.    > 1 or < 1 tr. tap at bus nl
linedata=[ 1    2     0.01938   0.05917   0.02640         1
           1    5     0.05403   0.22304   0.02460         1
           2    5     0.05695   0.17388   0.01700         1
           2    4     0.05811   0.17632   0.01870         1
           2    3     0.04699   0.19797   0.02190         1
           3    4     0.06701   0.17103   0.01730         1
           5    6     0.00000   0.25202   0.00000     0.932
           4    5     0.01335   0.04211   0.00640         1
           4    9     0.00000   0.55618   0.00000     0.969
           4    7     0.00000   0.20912   0.00000     0.978
           7    8     0.00000   0.17615   0.00000         1
           7    9     0.00000   0.11001   0.00000         1
           9   10     0.03181   0.08450   0.00000         1
           9   14     0.12711   0.27038   0.00000         1
           10  11     0.08205   0.19207   0.00000         1
           6   11     0.09498   0.19890   0.00000         1
           6   12     0.12291   0.25581   0.00000         1 
           6   13     0.06615   0.13027   0.00000         1
		  12   13     0.22092   0.19988   0.00000         1
		  13   14     0.17093   0.34802   0.00000         1];
		   